6
Frame 4: Converged  Geometry 23, SCF Bond Energy: -0.83821 Hartree
C -0.3329770750297814 0.3784677697272437 -0.2392692144520389
H 0.2161809799254937 0.03692253797998264 -1.121917339645141
H 0.2838408760354181 0.338087363856504 0.6572849901630322
H -0.7789450448203782 1.359333277781685 -0.3971734290770739
Pd -1.706484428735992 -1.405891566354931 -0.5943832762229359
H -1.646342307374767 -0.2407273829904572 0.4890792692341645
